ipss.plugin.3phase/testData/feeder/IEEE8500/IEEE8500u_Power_elem_kVA.txt

CIRCUIT ELEMENT POWER FLOW

(Power Flow into element from indicated Bus)

Power Delivery Elements

  Bus Phase     kW     +j   kvar         kVA         PF

ELEMENT = "Vsource.source"
SOURCEBUS    1     -4137.0 +j   -679.3     4192.4       0.9868
SOURCEBUS    2     -3787.1 +j   -492.8     3819.0       0.9916
SOURCEBUS    3     -4123.6 +j   -283.1     4133.3       0.9977
   TERMINAL TOTAL-12047.6 +j  -1455.2    12135.2       0.9928
SOURCEBUS    0         0.0 +j      0.0        0.0       1.0000
SOURCEBUS    0         0.0 +j      0.0        0.0       1.0000
SOURCEBUS    0         0.0 +j      0.0        0.0       1.0000
   TERMINAL TOTAL     0.0 +j      0.0        0.0       1.0000

ELEMENT = "Line.hvmv_sub_connector"
_HVMV_SUB_LSB     1      4169.0 +j    271.3     4177.8       0.9979
_HVMV_SUB_LSB     2      4020.2 +j    363.2     4036.5       0.9959
_HVMV_SUB_LSB     3      3792.9 +j    -87.5     3793.9      -0.9997
   TERMINAL TOTAL 11982.1 +j    547.0    11994.5       0.9990
HVMV_SUB_48332     1     -4169.0 +j   -271.3     4177.8       0.9979
HVMV_SUB_48332     2     -4020.2 +j   -363.2     4036.5       0.9959
HVMV_SUB_48332     3     -3792.9 +j     87.5     3793.9      -0.9997
   TERMINAL TOTAL-11982.1 +j   -546.9    11994.5       0.9990

ELEMENT = "Line.ln5502549-1"
M1009763     2         0.0 +j      0.0        0.0       0.8733
   TERMINAL TOTAL     0.0 +j      0.0        0.0       0.8733

ELEMENT = "Line.ln6259988-1"
M1069148     3         0.0 +j      0.0        0.0       0.8735
   TERMINAL TOTAL     0.0 +j      0.0        0.0       0.8735

ELEMENT = "Line.ln6077796-1"
M1069588     2         0.0 +j      0.0        0.0       0.8733
   TERMINAL TOTAL     0.0 +j      0.0        0.0       0.8733

ELEMENT = "Line.ln5835135-2"
M3036164     2         0.0 +j      0.0        0.0       0.8732
   TERMINAL TOTAL     0.0 +j      0.0        0.0       0.8732

ELEMENT = "Line.ln5896826-1"
M1209749     2         0.0 +j      0.0        0.0       0.7827
   TERMINAL TOTAL     0.0 +j      0.0        0.0       0.7827

ELEMENT = "Line.ln5714038-1"
M1108264     2         0.0 +j      0.0        0.0       0.8742
   TERMINAL TOTAL     0.0 +j      0.0        0.0       0.8742

ELEMENT = "Line.ln5653457-1"
L3085398     1       140.9 +j     37.4      145.8       0.9666
L3085398     2       299.2 +j     80.2      309.8       0.9659
L3085398     3       114.4 +j     30.3      118.3       0.9667
   TERMINAL TOTAL   554.5 +j    147.8      573.9       0.9663
M1026891     1      -140.9 +j    -37.4      145.7       0.9666
M1026891     2      -299.0 +j    -80.1      309.5       0.9659
M1026891     3      -114.3 +j    -30.3      118.3       0.9667
   TERMINAL TOTAL  -554.2 +j   -147.7      573.5       0.9662

ELEMENT = "Line.ln5835173-1"
L3216367     1       202.9 +j     53.4      209.8       0.9671
L3216367     2       448.6 +j    122.4      465.0       0.9647
L3216367     3       343.4 +j     93.1      355.8       0.9652
   TERMINAL TOTAL   994.9 +j    268.9     1030.6       0.9654
M1069468     1      -202.9 +j    -53.4      209.8       0.9671
M1069468     2      -448.5 +j   -122.3      464.8       0.9648
M1069468     3      -343.4 +j    -93.0      355.8       0.9652
   TERMINAL TOTAL  -994.8 +j   -268.8     1030.4       0.9654

ELEMENT = "Line.ln6321415-1"
M1142800     2         0.0 +j      0.0        0.0       0.7817
   TERMINAL TOTAL     0.0 +j      0.0        0.0       0.7817

ELEMENT = "Line.ln5565092-1"
M1047592     3         0.0 +j      0.0        0.0       0.8732
   TERMINAL TOTAL     0.0 +j      0.0        0.0       0.8732

ELEMENT = "Line.ln6073648-1"
M1047339     1         0.0 +j      0.0        0.0       0.8843
   TERMINAL TOTAL     0.0 +j      0.0        0.0       0.8843

ELEMENT = "Line.ln5774457-1"
M1026915     1       211.4 +j     56.4      218.8       0.9662
M1026915     2       171.2 +j     45.3      177.1       0.9667
M1026915     3       164.8 +j     43.9      170.5       0.9664
   TERMINAL TOTAL   547.4 +j    145.6      566.4       0.9664
M1026920     1      -211.3 +j    -56.4      218.7       0.9662
M1026920     2      -171.2 +j    -45.3      177.1       0.9667
M1026920     3      -164.8 +j    -43.9      170.5       0.9664
   TERMINAL TOTAL  -547.3 +j   -145.5      566.3       0.9664

ELEMENT = "Line.ln5534966-3"
N1138596     1         0.0 +j      0.0        0.0       0.8732
   TERMINAL TOTAL     0.0 +j      0.0        0.0       0.8732

ELEMENT = "Line.ln5859996-1"
M1069464     2         0.0 +j      0.0        0.0       0.7814
   TERMINAL TOTAL     0.0 +j      0.0        0.0       0.7814

ELEMENT = "Line.ln6138610-2"
N1144665     1       854.5 +j    229.5      884.8       0.9658
N1144665     2       654.8 +j    179.8      679.1       0.9643
N1144665     3       750.2 +j    204.5      777.6       0.9648
   TERMINAL TOTAL  2259.6 +j    613.8     2341.5       0.9650
M1047515     1      -853.9 +j   -229.3      884.2       0.9658
M1047515     2      -654.5 +j   -179.7      678.7       0.9643
M1047515     3      -749.7 +j   -204.4      777.1       0.9648
   TERMINAL TOTAL -2258.2 +j   -613.4     2340.0       0.9650

ELEMENT = "Line.ln6258435-3"
N1137002     1         0.0 +j      0.0        0.0       0.7816
   TERMINAL TOTAL     0.0 +j      0.0        0.0       0.7816

ELEMENT = "Line.ln5804790-1"
L2729406     3         0.0 +j      0.0        0.0       0.8738
   TERMINAL TOTAL     0.0 +j      0.0        0.0       0.8738

ELEMENT = "Line.ln6900591-14"
L3649301     1         0.0 +j      0.0        0.0       0.7814
   TERMINAL TOTAL     0.0 +j      0.0        0.0       0.7814

ELEMENT = "Line.ln6409873-1"
L2970842     2         0.0 +j      0.0        0.0       0.8733
   TERMINAL TOTAL     0.0 +j      0.0        0.0       0.8733

ELEMENT = "Line.ln6014135-1"
M1047312     1         0.0 +j      0.0        0.0       0.8758
   TERMINAL TOTAL     0.0 +j      0.0        0.0       0.8758

ELEMENT = "Line.ln6077784-1"
L2822871     1       409.1 +j    109.2      423.4       0.9662
L2822871     2       497.2 +j    134.3      515.0       0.9654
L2822871     3       306.3 +j     81.5      317.0       0.9663
   TERMINAL TOTAL  1212.6 +j    325.0     1255.4       0.9659
M1026872     1      -408.9 +j   -109.1      423.3       0.9662
M1026872     2      -497.1 +j   -134.1      514.8       0.9655
M1026872     3      -306.3 +j    -81.5      317.0       0.9664
   TERMINAL TOTAL -1212.3 +j   -324.7     1255.0       0.9659

ELEMENT = "Line.ln5744338-1"
M1026312     2         0.1 +j      0.0        0.1       0.8740
   TERMINAL TOTAL     0.1 +j      0.0        0.1       0.8740

ELEMENT = "Line.ln6991381-4"
L3728038     1         0.0 +j      0.0        0.0       0.7815
   TERMINAL TOTAL     0.0 +j      0.0        0.0       0.7815

ELEMENT = "Line.ln5774480-1"
M1069567     2         0.3 +j      0.1        0.3       0.8732
   TERMINAL TOTAL     0.3 +j      0.1        0.3       0.8732

ELEMENT = "Line.ln5986938-3"
N1140830     1         0.0 +j      0.0        0.0       0.8732
   TERMINAL TOTAL     0.0 +j      0.0        0.0       0.8732

ELEMENT = "Line.ln5894230-1"
L2952007     3         0.0 +j      0.0        0.0       0.8736
   TERMINAL TOTAL     0.0 +j      0.0        0.0       0.8736

ELEMENT = "Line.ln5683858-3"
N1140827     1        18.2 +j      4.9       18.8       0.9658
N1140827     2        30.0 +j      8.0       31.0       0.9658
N1140827     3        20.8 +j      5.5       21.5       0.9664
   TERMINAL TOTAL    68.9 +j     18.5       71.4       0.9660
M1026726     1       -18.2 +j     -4.9       18.8       0.9658
M1026726     2       -30.0 +j     -8.0       31.0       0.9658
M1026726     3       -20.8 +j     -5.5       21.5       0.9664
   TERMINAL TOTAL   -68.9 +j    -18.5       71.4       0.9660

ELEMENT = "Line.ln5920279-5"
L2730106     1      2369.1 +j    357.4     2395.9       0.9888
L2730106     2      2284.4 +j    371.6     2314.4       0.9870
L2730106     3      1686.6 +j     70.0     1688.1       0.9991
   TERMINAL TOTAL  6340.1 +j    799.1     6390.2       0.9922
N1142099     1     -2368.3 +j   -356.4     2394.9       0.9889
N1142099     2     -2284.2 +j   -370.5     2314.0       0.9871
N1142099     3     -1686.6 +j    -69.8     1688.0       0.9991
   TERMINAL TOTAL -6339.0 +j   -796.7     6388.9       0.9922

ELEMENT = "Line.ln6439600-1"
M1026658     1         0.0 +j      0.0        0.0       0.7818
   TERMINAL TOTAL     0.0 +j      0.0        0.0       0.7818

ELEMENT = "Line.ln5589097-1"
P895112     1         0.0 +j      0.0        0.0       0.7677
   TERMINAL TOTAL     0.0 +j      0.0        0.0       0.7677

ELEMENT = "Line.ln5651975-1"
L2991914     1       438.5 +j    118.5      454.2       0.9654
L2991914     2       107.3 +j     28.1      110.9       0.9673
L2991914     3       239.6 +j     63.3      247.8       0.9669
   TERMINAL TOTAL   785.4 +j    209.9      812.9       0.9661
M1047503     1      -438.3 +j   -118.4      454.0       0.9654
M1047503     2      -107.3 +j    -28.1      110.9       0.9673
M1047503     3      -239.5 +j    -63.3      247.7       0.9668
   TERMINAL TOTAL  -785.1 +j   -209.8      812.6       0.9661

ELEMENT = "Line.ln5865236-1"
M1047751     1         0.0 +j      0.0        0.0       0.8732
   TERMINAL TOTAL     0.0 +j      0.0        0.0       0.8732

ELEMENT = "Line.ln5593232-1"
L3010565     3         0.0 +j      0.0        0.0       0.7819
   TERMINAL TOTAL     0.0 +j      0.0        0.0       0.7819

ELEMENT = "Line.ln5740283-1"
M1125955     3         0.0 +j      0.0        0.0       0.8766
   TERMINAL TOTAL     0.0 +j      0.0        0.0       0.8766

ELEMENT = "Line.ln6106559-1"
M1069640     2         0.0 +j      0.0        0.0       0.8733
   TERMINAL TOTAL     0.0 +j      0.0        0.0       0.8733

ELEMENT = "Line.ln5714056-3"
M1026702     1       362.7 +j     96.8      375.4       0.9662
M1026702     2        82.2 +j     21.7       85.0       0.9668
M1026702     3       181.4 +j     48.2      187.7       0.9664
   TERMINAL TOTAL   626.2 +j    166.8      648.1       0.9663
N1139551     1      -362.2 +j    -96.6      374.8       0.9662
N1139551     2       -82.2 +j    -21.7       85.0       0.9668
N1139551     3      -181.2 +j    -48.3      187.5       0.9663
   TERMINAL TOTAL  -625.5 +j   -166.6      647.3       0.9663

ELEMENT = "Line.ln5985355-3"
N1136355     2         0.4 +j      0.2        0.4       0.8766
   TERMINAL TOTAL     0.4 +j      0.2        0.4       0.8766

ELEMENT = "Line.ln5531956-1"
L2748143     1         0.0 +j      0.0        0.0       0.7816
   TERMINAL TOTAL     0.0 +j      0.0        0.0       0.7816

ELEMENT = "Line.ln5650048-1"
M1069610     2         0.0 +j      0.0        0.0       0.7816
   TERMINAL TOTAL     0.0 +j      0.0        0.0       0.7816

ELEMENT = "Line.ln6290203-1"
M1069424     1       155.7 +j     41.0      161.0       0.9670
M1069424     2       385.2 +j    104.5      399.2       0.9651
M1069424     3       280.8 +j     75.6      290.8       0.9656
   TERMINAL TOTAL   821.7 +j    221.1      850.9       0.9656
L2935549     1      -155.6 +j    -41.0      161.0       0.9670
L2935549     2      -385.0 +j   -104.4      398.9       0.9652
L2935549     3      -280.8 +j    -75.5      290.8       0.9657
   TERMINAL TOTAL  -821.5 +j   -220.9      850.7       0.9657

ELEMENT = "Line.ln6134414-1"
P895089     3         0.0 +j      0.0        0.0       0.7815
   TERMINAL TOTAL     0.0 +j      0.0        0.0       0.7815

ELEMENT = "Line.ln6259998-2"
M1026795     3         0.0 +j      0.0        0.0       0.7814
   TERMINAL TOTAL     0.0 +j      0.0        0.0       0.7814

ELEMENT = "Line.ln6078767-1"
L3030199     1       761.6 +j   -102.8      768.5      -0.9910
L3030199     2       912.8 +j    -49.2      914.2      -0.9986
L3030199     3      1160.3 +j      3.2     1160.3       1.0000
   TERMINAL TOTAL  2834.8 +j   -148.9     2838.7      -0.9986
M1125934     1      -761.6 +j    103.0      768.5      -0.9910
M1125934     2      -912.7 +j     49.3      914.0      -0.9985
M1125934     3     -1160.2 +j     -2.9     1160.2       1.0000
   TERMINAL TOTAL -2834.5 +j    149.4     2838.5      -0.9986

ELEMENT = "Line.ln6017300-1"
M1069189     3         0.0 +j      0.0        0.0       0.8770
   TERMINAL TOTAL     0.0 +j      0.0        0.0       0.8770

ELEMENT = "Line.ln8979257-2"
221-312488     1         9.1 +j      2.4        9.4       0.9668
221-312488     2         9.9 +j      2.6       10.3       0.9673
221-312488     3        10.4 +j      2.7       10.8       0.9671
   TERMINAL TOTAL    29.4 +j      7.7       30.4       0.9671
M1089183     1        -9.1 +j     -2.4        9.4       0.9665
M1089183     2        -9.9 +j     -2.6       10.3       0.9671
M1089183     3       -10.4 +j     -2.7       10.8       0.9668
   TERMINAL TOTAL   -29.4 +j     -7.8       30.5       0.9668

ELEMENT = "Line.ln81048109-1"
M1108464     2         0.0 +j      0.0        0.0       0.8712
   TERMINAL TOTAL     0.0 +j      0.0        0.0       0.8712

ELEMENT = "Line.293471"
F739845     1         9.0 +j      2.4        9.3       0.9661
F739845     2        10.0 +j      2.7       10.3       0.9656
F739845     3        10.3 +j      2.8       10.7       0.9662
   TERMINAL TOTAL    29.3 +j      7.9       30.3       0.9660
293471     1        -9.0 +j     -2.4        9.3       0.9659
293471     2       -10.0 +j     -2.7       10.3       0.9654
293471     3       -10.3 +j     -2.8       10.7       0.9661
   TERMINAL TOTAL   -29.3 +j     -7.9       30.4       0.9658

ELEMENT = "Line.ln5534965-2"
P827499     1         0.0 +j      0.0        0.0       0.8732
   TERMINAL TOTAL     0.0 +j      0.0        0.0       0.8732

ELEMENT = "Line.ln5655683-1"
M1026657     1         0.0 +j      0.0        0.0       0.8732
   TERMINAL TOTAL     0.0 +j      0.0        0.0       0.8732

ELEMENT = "Line.ln5686247-1"
M1108299     2         0.0 +j      0.0        0.0       0.8732
   TERMINAL TOTAL     0.0 +j      0.0        0.0       0.8732

ELEMENT = "Line.ln6048642-1"
L3198355     2         0.0 +j      0.0        0.0       0.8766
   TERMINAL TOTAL     0.0 +j      0.0        0.0       0.8766

ELEMENT = "Line.ln5928544-3"
N1137994     3         0.0 +j      0.0        0.0       0.8758
   TERMINAL TOTAL     0.0 +j      0.0        0.0       0.8758

ELEMENT = "Line.ln6108172-1"
L2860504     1         0.0 +j      0.0        0.0       0.7818
   TERMINAL TOTAL     0.0 +j      0.0        0.0       0.7818

ELEMENT = "Line.ln5532754-1"
M1026783     1       402.4 +j    108.2      416.6       0.9657
M1026783     2       107.2 +j     28.3      110.9       0.9670
M1026783     3       199.1 +j     52.6      206.0       0.9668
   TERMINAL TOTAL   708.7 +j    189.1      733.5       0.9662
M1026780     1      -402.3 +j   -108.1      416.5       0.9657
M1026780     2      -107.2 +j    -28.3      110.9       0.9670
M1026780     3      -199.1 +j    -52.6      206.0       0.9668
   TERMINAL TOTAL  -708.6 +j   -189.0      733.4       0.9662

ELEMENT = "Line.ln5591834-1"
P895111     3         0.0 +j      0.0        0.0       0.7815
   TERMINAL TOTAL     0.0 +j      0.0        0.0       0.7815

ELEMENT = "Line.ln6347196-2"
N1140819     1       195.5 +j     52.0      202.3       0.9664
N1140819     2        76.2 +j     20.2       78.8       0.9667
N1140819     3       181.0 +j     48.2      187.3       0.9663
   TERMINAL TOTAL   452.7 +j    120.4      468.5       0.9664
M1026700     1      -195.5 +j    -52.0      202.3       0.9664
M1026700     2       -76.2 +j    -20.2       78.8       0.9667
M1026700     3      -181.0 +j    -48.2      187.3       0.9663
   TERMINAL TOTAL  -452.7 +j   -120.4      468.4       0.9664

ELEMENT = "Line.ln5532741-1"
M1089173     3         0.0 +j      0.0        0.0       0.8766
   TERMINAL TOTAL     0.0 +j      0.0        0.0       0.8766

ELEMENT = "Line.ln5804803-1"
M1026344     1         0.0 +j      0.0        0.0       0.7834
   TERMINAL TOTAL     0.0 +j      0.0        0.0       0.7834

ELEMENT = "Line.ln6169248-1"
L2879070     1       794.8 +j    215.5      823.5       0.9651
L2879070     2       533.9 +j    146.6      553.6       0.9643
L2879070     3       327.9 +j     87.2      339.3       0.9664
   TERMINAL TOTAL  1656.6 +j    449.3     1716.4       0.9651
L3216345     1      -794.1 +j   -214.9      822.6       0.9653
L3216345     2      -533.7 +j   -146.3      553.4       0.9644
L3216345     3      -327.8 +j    -87.2      339.2       0.9664
   TERMINAL TOTAL -1655.6 +j   -448.4     1715.3       0.9652

ELEMENT = "Line.ln5532786-2"
M1069428     2         0.0 +j      0.0        0.0       0.7899
   TERMINAL TOTAL     0.0 +j      0.0        0.0       0.7899

ELEMENT = "Line.ln5744339-1"
L2991919     1         0.0 +j      0.0        0.0       0.8758
   TERMINAL TOTAL     0.0 +j      0.0        0.0       0.8758

ELEMENT = "Line.ln5531255-3"
N1147857     1         0.0 +j      0.0        0.0       0.8732
   TERMINAL TOTAL     0.0 +j      0.0        0.0       0.8732

ELEMENT = "Line.ln5926308-2"
Q14412     1       284.2 +j     75.3      294.0       0.9666
Q14412     2       344.1 +j     93.5      356.6       0.9650
Q14412     3       137.9 +j     36.3      142.6       0.9671
   TERMINAL TOTAL   766.1 +j    205.1      793.1       0.9660
M1047325     1      -284.1 +j    -75.3      293.9       0.9666
M1047325     2      -344.0 +j    -93.4      356.5       0.9650
M1047325     3      -137.9 +j    -36.3      142.5       0.9671
   TERMINAL TOTAL  -765.9 +j   -205.0      792.9       0.9660

ELEMENT = "Line.ln5683856-3"
N1139263     1         0.0 +j      0.0        0.0       0.8733
   TERMINAL TOTAL     0.0 +j      0.0        0.0       0.8733

ELEMENT = "Line.ln6171502-1"
P827506     1         0.0 +j      0.0        0.0       0.8732
   TERMINAL TOTAL     0.0 +j      0.0        0.0       0.8732

ELEMENT = "Line.ln5593228-1"
M1027019     2         0.0 +j      0.0        0.0       0.7816
   TERMINAL TOTAL     0.0 +j      0.0        0.0       0.7816

ELEMENT = "Line.ln6380800-1"
L3216338     2         0.0 +j      0.0        0.0       0.7816
   TERMINAL TOTAL     0.0 +j      0.0        0.0       0.7816

ELEMENT = "Line.ln6199525-2"
M3037452     1         0.0 +j      0.0        0.0       0.8738
   TERMINAL TOTAL     0.0 +j      0.0        0.0       0.8738

ELEMENT = "Line.ln5772710-2"
L3120376     1         0.0 +j      0.0        0.0       0.8741
   TERMINAL TOTAL     0.0 +j      0.0        0.0       0.8741

ELEMENT = "Line.ln8961760-1"
M1047612     3         0.0 +j      0.0        0.0       0.8709
   TERMINAL TOTAL     0.0 +j      0.0        0.0       0.8709

ELEMENT = "Line.ln6047556-1"
M1089195     3         0.0 +j      0.0        0.0       0.7818
   TERMINAL TOTAL     0.0 +j      0.0        0.0       0.7818

ELEMENT = "Line.ln6138603-1"
M1026946     2         0.0 +j      0.0        0.0       0.8735
   TERMINAL TOTAL     0.0 +j      0.0        0.0       0.8735

ELEMENT = "Line.ln6108139-1"
M1047471     2         0.0 +j      0.0        0.0       0.7815
   TERMINAL TOTAL     0.0 +j      0.0        0.0       0.7815

ELEMENT = "Line.ln6388581-2"
M1047401     1         0.0 +j      0.0        0.0       0.8735
   TERMINAL TOTAL     0.0 +j      0.0        0.0       0.8735

ELEMENT = "Line.ln5774460-1"
L3122820     1         0.0 +j      0.0        0.0       0.7818
   TERMINAL TOTAL     0.0 +j      0.0        0.0       0.7818

ELEMENT = "Line.ln5624387-1"
M1108360     3         0.0 +j      0.0        0.0       0.8733
   TERMINAL TOTAL     0.0 +j      0.0        0.0       0.8733

ELEMENT = "Line.ln6137087-1"
L2801950     3         0.0 +j      0.0        0.0       0.8930
   TERMINAL TOTAL     0.0 +j      0.0        0.0       0.8930

ELEMENT = "Line.ln6077809-1"
L2766746     3         0.0 +j      0.0        0.0       0.7814
   TERMINAL TOTAL     0.0 +j      0.0        0.0       0.7814

ELEMENT = "Line.ln6440079-1"
L2895496     3         0.0 +j      0.0        0.0       0.7814
   TERMINAL TOTAL     0.0 +j      0.0        0.0       0.7814

ELEMENT = "Line.ln5804794-1"
M1069181     1         0.0 +j      0.0        0.0       0.8733
   TERMINAL TOTAL     0.0 +j      0.0        0.0       0.8733

ELEMENT = "Line.ln5654484-1"
L3179682     3         0.0 +j      0.0        0.0       0.8733
   TERMINAL TOTAL     0.0 +j      0.0        0.0       0.8733

ELEMENT = "Line.ln5774465-1"
L3066816     1         0.0 +j      0.0        0.0       0.7816
   TERMINAL TOTAL     0.0 +j      0.0        0.0       0.7816

ELEMENT = "Line.ln5473349-1"
M1108529     1      2211.1 +j    289.8     2230.0       0.9915
M1108529     2      2250.4 +j    327.4     2274.1       0.9896
M1108529     3      1590.1 +j     34.5     1590.5       0.9998
   TERMINAL TOTAL  6051.6 +j    651.8     6086.6       0.9942
M1108532     1     -2210.5 +j   -289.1     2229.3       0.9916
M1108532     2     -2250.1 +j   -326.3     2273.6       0.9896
M1108532     3     -1590.1 +j    -34.2     1590.5       0.9998
   TERMINAL TOTAL -6050.7 +j   -649.6     6085.5       0.9943

ELEMENT = "Line.ln6169253-1"
L2766723     1         0.0 +j      0.0        0.0       0.8734
   TERMINAL TOTAL     0.0 +j      0.0        0.0       0.8734

ELEMENT = "Line.ln6350536-1"
L2673312     1         0.0 +j      0.0        0.0       0.7825
   TERMINAL TOTAL     0.0 +j      0.0        0.0       0.7825

ELEMENT = "Line.ln6048523-1"
M1166391     3         0.1 +j      0.0        0.1       0.8758
   TERMINAL TOTAL     0.1 +j      0.0        0.1       0.8758

ELEMENT = "Line.ln5594152-1"
L2861157     3         0.1 +j      0.1        0.1       0.7814
   TERMINAL TOTAL     0.1 +j      0.1        0.1       0.7814

ELEMENT = "Line.ln5865248-1"
M1047346     1       333.9 +j     88.6      345.5       0.9666
M1047346     2       360.1 +j     98.0      373.2       0.9649
M1047346     3       138.0 +j     36.2      142.7       0.9672
   TERMINAL TOTAL   832.0 +j    222.8      861.3       0.9660
M1047345     1      -333.7 +j    -88.5      345.3       0.9666
M1047345     2      -360.0 +j    -97.9      373.1       0.9649
M1047345     3      -138.0 +j    -36.2      142.6       0.9672
   TERMINAL TOTAL  -831.7 +j   -222.7      861.0       0.9660

ELEMENT = "Line.ln6046143-1"
L2989596     2         0.0 +j      0.0        0.0       0.8764
   TERMINAL TOTAL     0.0 +j      0.0        0.0       0.8764

ELEMENT = "Line.ln5803287-1"
M1108328     3         0.0 +j      0.0        0.0       0.7814
   TERMINAL TOTAL     0.0 +j      0.0        0.0       0.7814

ELEMENT = "Line.ln5589094-1"
L2786204     3         0.1 +j      0.1        0.1       0.8732
   TERMINAL TOTAL     0.1 +j      0.1        0.1       0.8732

ELEMENT = "Line.ln5954983-1"
P901972     1         0.0 +j      0.0        0.0       0.8766
   TERMINAL TOTAL     0.0 +j      0.0        0.0       0.8766

ELEMENT = "Line.ln5924696-2"
M1047702     1         0.0 +j      0.0        0.0       0.7817
   TERMINAL TOTAL     0.0 +j      0.0        0.0       0.7817

ELEMENT = "Line.ln6506311-4"
L2767340     1        -0.0 +j     -0.0        0.0       0.0240
L2767340     2        -0.0 +j     -0.0        0.0       0.0504
L2767340     3         6.2 +j      1.7        6.4       0.9661
   TERMINAL TOTAL     6.2 +j      1.7        6.4       0.9662
M3037449     1        -0.0 +j     -0.0        0.0       0.6574
M3037449     2        -0.0 +j     -0.0        0.0       0.9008
M3037449     3        -6.2 +j     -1.7        6.4       0.9661
   TERMINAL TOTAL    -6.2 +j     -1.7        6.4       0.9661

ELEMENT = "Line.ln5653493-1"
M1047457     2         0.0 +j      0.0        0.0       0.7814
   TERMINAL TOTAL     0.0 +j      0.0        0.0       0.7814

ELEMENT = "Line.ln5684836-1"
L2674027     1      2216.0 +j    296.7     2235.8       0.9912
L2674027     2      2252.8 +j    336.1     2277.7       0.9891
L2674027     3      1678.4 +j     60.8     1679.5       0.9993
   TERMINAL TOTAL  6147.2 +j    693.6     6186.2       0.9937
L2692633     1     -2214.0 +j   -294.0     2233.4       0.9913
L2692633     2     -2251.9 +j   -332.8     2276.4       0.9893
L2692633     3     -1678.5 +j    -59.9     1679.5       0.9994
   TERMINAL TOTAL -6144.3 +j   -686.7     6182.6       0.9938

ELEMENT = "Line.ln5715016-3"
N1142108     1         0.0 +j      0.0        0.0       0.7819
   TERMINAL TOTAL     0.0 +j      0.0        0.0       0.7819

ELEMENT = "Line.ln6138614-1"
M1069135     1       353.3 +j   -214.6      413.4      -0.8547
M1069135     2       361.3 +j   -205.0      415.4      -0.8697
M1069135     3       169.4 +j   -274.8      322.8      -0.5249
   TERMINAL TOTAL   884.1 +j   -694.4     1124.2      -0.7864
R18242     1      -352.9 +j    214.7      413.1      -0.8544
R18242     2      -360.9 +j    205.2      415.2      -0.8694
R18242     3      -169.3 +j    274.8      322.8      -0.5245
   TERMINAL TOTAL  -883.2 +j    694.7     1123.6      -0.7860

ELEMENT = "Line.ln6077781-2"
M1047534     1      1888.6 +j    518.5     1958.5       0.9643
M1047534     2      1732.2 +j    485.8     1799.1       0.9628
M1047534     3      1419.8 +j    385.2     1471.2       0.9651
   TERMINAL TOTAL  5040.7 +j   1389.5     5228.7       0.9640
N1136663     1     -1883.9 +j   -514.5     1952.9       0.9647
N1136663     2     -1729.1 +j   -482.3     1795.1       0.9632
N1136663     3     -1417.9 +j   -383.5     1468.8       0.9653
   TERMINAL TOTAL -5030.8 +j  -1380.3     5216.7       0.9644

ELEMENT = "Line.ln5675121-1"
M1108508     3         0.0 +j      0.0        0.0       0.7823
   TERMINAL TOTAL     0.0 +j      0.0        0.0       0.7823

ELEMENT = "Line.ln5773046-1"
M1069560     2         0.2 +j      0.1        0.2       0.8732
   TERMINAL TOTAL     0.2 +j      0.1        0.2       0.8732

ELEMENT = "Line.ln6380809-2"
L2973153     1       165.1 +j     43.5      170.7       0.9670
L2973153     2       510.3 +j    139.4      529.0       0.9647
L2973153     3        58.1 +j     15.3       60.1       0.9672
   TERMINAL TOTAL   733.5 +j    198.1      759.8       0.9654
N1136998     1      -165.1 +j    -43.5      170.7       0.9670
N1136998     2      -510.2 +j   -139.4      528.9       0.9647
N1136998     3       -58.1 +j    -15.3       60.1       0.9671
   TERMINAL TOTAL  -733.4 +j   -198.1      759.7       0.9654

ELEMENT = "Line.ln6018326-1"
L2898515     3         0.0 +j      0.0        0.0       0.8734
   TERMINAL TOTAL     0.0 +j      0.0        0.0       0.8734

ELEMENT = "Line.ln5472356-1"
M1047442     2         0.0 +j      0.0        0.0       0.8771
   TERMINAL TOTAL     0.0 +j      0.0        0.0       0.8771

ELEMENT = "Line.ln6139641-1"
M1142871     1      2782.6 +j    556.8     2837.7       0.9806
M1142871     2      2705.0 +j    604.7     2771.8       0.9759
M1142871     3      1986.2 +j    178.1     1994.2       0.9960
   TERMINAL TOTAL  7473.8 +j   1339.6     7592.9       0.9843
M1142874     1     -2780.9 +j   -554.6     2835.6       0.9807
M1142874     2     -2704.4 +j   -602.1     2770.6       0.9761
M1142874     3     -1986.2 +j   -177.4     1994.1       0.9960
   TERMINAL TOTAL -7471.5 +j  -1334.0     7589.7       0.9844

ELEMENT = "Line.ln6018341-1"
L2955081     1       717.0 +j   -117.7      726.6      -0.9868
L2955081     2       827.3 +j    -74.2      830.6      -0.9960
L2955081     3      1120.7 +j    -15.5     1120.8      -0.9999
   TERMINAL TOTAL  2665.0 +j   -207.4     2673.1      -0.9970
M1108315     1      -717.0 +j    118.0      726.7      -0.9867
M1108315     2      -826.9 +j     74.5      830.3      -0.9960
M1108315     3     -1120.4 +j     16.4     1120.5      -0.9999
   TERMINAL TOTAL -2664.3 +j    209.0     2672.5      -0.9969

ELEMENT = "Line.ln6017302-1"
L2973162     1        14.4 +j      3.8       14.9       0.9670
L2973162     2       271.7 +j     73.1      281.4       0.9657
L2973162     3         6.2 +j      1.6        6.4       0.9680
   TERMINAL TOTAL   292.3 +j     78.5      302.7       0.9658
M1026333     1       -14.4 +j     -3.8       14.9       0.9668
M1026333     2      -271.6 +j    -73.0      281.2       0.9657
M1026333     3        -6.2 +j     -1.6        6.4       0.9676
   TERMINAL TOTAL  -292.2 +j    -78.5      302.5       0.9658

ELEMENT = "Line.ln6199505-1"
M1009832     2         0.0 +j      0.0        0.0       0.8735
   TERMINAL TOTAL     0.0 +j      0.0        0.0       0.8735

ELEMENT = "Line.ln5682327-1"
M1026854     1         0.0 +j      0.0        0.0       0.8732
   TERMINAL TOTAL     0.0 +j      0.0        0.0       0.8732

ELEMENT = "Line.ln6290243-1"
M1026485     2         0.0 +j      0.0        0.0       0.7815
   TERMINAL TOTAL     0.0 +j      0.0        0.0       0.7815

ELEMENT = "Line.x8223_48332_sw"
D6413567-3_INT     1       562.2 +j   -159.9      584.5      -0.9619
D6413567-3_INT     2       607.0 +j   -136.8      622.2      -0.9755
D6413567-3_INT     3       220.4 +j   -260.4      341.1      -0.6460
   TERMINAL TOTAL  1389.6 +j   -557.1     1497.1      -0.9282
E182724     1      -562.2 +j    159.9      584.5      -0.9619
E182724     2      -607.0 +j    136.8      622.2      -0.9755
E182724     3      -220.4 +j    260.4      341.1      -0.6460
   TERMINAL TOTAL -1389.6 +j    557.1     1497.1      -0.9282

ELEMENT = "Line.ln6413567-3"
N1139541     1       562.4 +j   -159.9      584.7      -0.9619
N1139541     2       607.2 +j   -136.7      622.4      -0.9756
N1139541     3       220.4 +j   -260.3      341.1      -0.6461
   TERMINAL TOTAL  1390.0 +j   -556.9     1497.4      -0.9283
D6413567-3_INT     1      -562.2 +j    159.9      584.5      -0.9619
D6413567-3_INT     2      -607.0 +j    136.8      622.2      -0.9755
D6413567-3_INT     3      -220.4 +j    260.4      341.1      -0.6460
   TERMINAL TOTAL -1389.6 +j    557.1     1497.1      -0.9282

ELEMENT = "Line.ln5591731-3"
M4122658     1      2402.4 +j    373.1     2431.2       0.9882
M4122658     2      2286.4 +j    380.7     2317.9       0.9864
M4122658     3      1697.1 +j     75.0     1698.7       0.9990
   TERMINAL TOTAL  6385.8 +j    828.8     6439.4       0.9917
L2933135     1     -2402.3 +j   -373.0     2431.1       0.9882
L2933135     2     -2286.4 +j   -380.6     2317.8       0.9864
L2933135     3     -1697.1 +j    -75.0     1698.7       0.9990
   TERMINAL TOTAL -6385.8 +j   -828.7     6439.3       0.9917

ELEMENT = "Line.ln5653470-1"
M1026702     1         9.0 +j      2.4        9.3       0.9662
M1026702     2         9.9 +j      2.6       10.3       0.9661
M1026702     3        10.4 +j      2.8       10.7       0.9661
   TERMINAL TOTAL    29.3 +j      7.8       30.3       0.9661
L2729414     1        -9.0 +j     -2.4        9.3       0.9659
L2729414     2        -9.9 +j     -2.7       10.3       0.9658
L2729414     3       -10.4 +j     -2.8       10.7       0.9659
   TERMINAL TOTAL   -29.3 +j     -7.9       30.3       0.9659

ELEMENT = "Line.ln6017316-1"
L2729430     2         0.2 +j      0.1        0.2       0.8732
   TERMINAL TOTAL     0.2 +j      0.1        0.2       0.8732

ELEMENT = "Line.ln5926299-1"
M1026972     2         0.0 +j      0.0        0.0       0.7815
   TERMINAL TOTAL     0.0 +j      0.0        0.0       0.7815

ELEMENT = "Line.ln5683831-1"
L2860490     1       334.4 +j     88.7      345.9       0.9666
L2860490     2       360.5 +j     98.2      373.7       0.9649
L2860490     3       169.2 +j     44.6      175.0       0.9670
   TERMINAL TOTAL   864.1 +j    231.4      894.5       0.9660
L3104134     1      -334.1 +j    -88.6      345.6       0.9666
L3104134     2      -360.3 +j    -98.1      373.4       0.9649
L3104134     3      -169.2 +j    -44.6      174.9       0.9670
   TERMINAL TOTAL  -863.6 +j   -231.2      894.0       0.9660

ELEMENT = "Line.ln6352700-1"
M1089144     1         0.0 +j      0.0        0.0       0.7814
   TERMINAL TOTAL     0.0 +j      0.0        0.0       0.7814

ELEMENT = "Line.ln6047570-1"
M1089118     1         0.0 +j      0.0        0.0       0.8743
   TERMINAL TOTAL     0.0 +j      0.0        0.0       0.8743

ELEMENT = "Line.ln5624342-1"
M1108505     1      2230.5 +j    306.1     2251.5       0.9907
M1108505     2      2280.0 +j    351.8     2307.0       0.9883
M1108505     3      1678.3 +j     63.1     1679.5       0.9993
   TERMINAL TOTAL  6188.9 +j    721.1     6230.8       0.9933
L2955047     1     -2228.9 +j   -304.0     2249.5       0.9908
L2955047     2     -2279.3 +j   -349.1     2305.9       0.9885
L2955047     3     -1678.4 +j    -62.4     1679.5       0.9993
   TERMINAL TOTAL -6186.5 +j   -715.5     6227.8       0.9934

ELEMENT = "Line.ln6259992-1"
M1089148     1         0.0 +j      0.0        0.0       0.8931
   TERMINAL TOTAL     0.0 +j      0.0        0.0       0.8931

ELEMENT = "Line.ln5841919-1"
M1026745     2         0.0 +j      0.0        0.0       0.7819
   TERMINAL TOTAL     0.0 +j      0.0        0.0       0.7819

ELEMENT = "Line.ln6380811-1"
L2710512     2         0.1 +j      0.0        0.1       0.8733
   TERMINAL TOTAL     0.1 +j      0.0        0.1       0.8733

ELEMENT = "Line.ln5683832-1"
M1047342     1         0.0 +j      0.0        0.0       0.7817
   TERMINAL TOTAL     0.0 +j      0.0        0.0       0.7817

ELEMENT = "Line.ln6077778-1"
M1069192     1         0.0 +j      0.0        0.0       0.7817
   TERMINAL TOTAL     0.0 +j      0.0        0.0       0.7817

ELEMENT = "Line.ln5561442-2"
L3214071     1      2742.8 +j    518.6     2791.4       0.9826
L3214071     2      2695.5 +j    563.9     2753.9       0.9788
L3214071     3      1948.9 +j    158.3     1955.3       0.9967
   TERMINAL TOTAL  7387.2 +j   1240.8     7490.7       0.9862
M1125952     1     -2740.3 +j   -515.4     2788.4       0.9828
M1125952     2     -2694.6 +j   -560.1     2752.2       0.9791
M1125952     3     -1948.9 +j   -157.4     1955.3       0.9968
   TERMINAL TOTAL -7383.9 +j  -1233.0     7486.2       0.9863

ELEMENT = "Line.ln6259983-1"
M1027101     2         0.0 +j      0.0        0.0       0.7820
   TERMINAL TOTAL     0.0 +j      0.0        0.0       0.7820

ELEMENT = "Line.ln5865244-1"
L2710517     1         0.0 +j      0.0        0.0       0.8732
   TERMINAL TOTAL     0.0 +j      0.0        0.0       0.8732

ELEMENT = "Line.ln6350555-1"
M1069662     2         0.0 +j      0.0        0.0       0.7818
   TERMINAL TOTAL     0.0 +j      0.0        0.0       0.7818

ELEMENT = "Line.ln5714039-1"
M1026931     1         0.0 +j      0.0        0.0       0.8733
   TERMINAL TOTAL     0.0 +j      0.0        0.0       0.8733

ELEMENT = "Line.ln5889821-1"
L3142049     1      2347.1 +j    347.4     2372.7       0.9892
L3142049     2      2283.1 +j    365.9     2312.3       0.9874
L3142049     3      1682.5 +j     67.6     1683.8       0.9992
   TERMINAL TOTAL  6312.7 +j    780.8     6360.8       0.9924
M1108493     1     -2344.2 +j   -343.5     2369.3       0.9894
M1108493     2     -2282.2 +j   -361.6     2310.6       0.9877
M1108493     3     -1682.5 +j    -66.5     1683.8       0.9992
   TERMINAL TOTAL -6308.9 +j   -771.7     6355.9       0.9926

ELEMENT = "Line.ln5804791-1"
M1069169     1       426.4 +j   -196.3      469.4      -0.9084
M1069169     2       606.0 +j   -137.3      621.4      -0.9753
M1069169     3       220.2 +j   -260.4      341.0      -0.6456
   TERMINAL TOTAL  1252.5 +j   -594.0     1386.3      -0.9035
L3010556     1      -425.8 +j    196.3      468.9      -0.9081
L3010556     2      -605.2 +j    137.7      620.6      -0.9751
L3010556     3      -220.0 +j    260.5      341.0      -0.6452
   TERMINAL TOTAL -1251.0 +j    594.6     1385.1      -0.9032

ELEMENT = "Line.ln5653486-1"
L2991933     3         0.0 +j      0.0        0.0       0.8733
   TERMINAL TOTAL     0.0 +j      0.0        0.0       0.8733

ELEMENT = "Line.ln5926286-1"
L3216336     1         0.0 +j      0.0        0.0       0.8733
   TERMINAL TOTAL     0.0 +j      0.0        0.0       0.8733

ELEMENT = "Line.ln6318859-1"
L2897772     1         0.0 +j      0.0        0.0       0.8732
   TERMINAL TOTAL     0.0 +j      0.0        0.0       0.8732

ELEMENT = "Line.ln5926316-1"
L2766732     2         0.0 +j      0.0        0.0       0.7814
   TERMINAL TOTAL     0.0 +j      0.0        0.0       0.7814

ELEMENT = "Line.ln5591703-1"
L2804269     2         0.0 +j      0.0        0.0       0.8733
   TERMINAL TOTAL     0.0 +j      0.0        0.0       0.8733

ELEMENT = "Line.ln5531333-1"
M1126016     1         0.0 +j      0.0        0.0       0.8733
   TERMINAL TOTAL     0.0 +j      0.0        0.0       0.8733

ELEMENT = "Line.ln6047581-1"
M1026330     2         0.0 +j      0.0        0.0       0.8768
   TERMINAL TOTAL     0.0 +j      0.0        0.0       0.8768

ELEMENT = "Line.ln6349077-1"
P901912     2         0.0 +j      0.0        0.0       0.7814
   TERMINAL TOTAL     0.0 +j      0.0        0.0       0.7814

ELEMENT = "Line.ln6350574-1"
M1108381     1        63.5 +j     16.8       65.7       0.9667
M1108381     2        66.0 +j     17.5       68.3       0.9665
M1108381     3        62.4 +j     16.5       64.6       0.9669
   TERMINAL TOTAL   192.0 +j     50.8      198.6       0.9667
L3254237     1       -63.5 +j    -16.8       65.7       0.9667
L3254237     2       -66.0 +j    -17.5       68.3       0.9665
L3254237     3       -62.4 +j    -16.5       64.6       0.9668
   TERMINAL TOTAL  -191.9 +j    -50.9      198.6       0.9666

ELEMENT = "Line.ln6320343-1"
L2804262     1         0.0 +j      0.0        0.0       0.8732
   TERMINAL TOTAL     0.0 +j      0.0        0.0       0.8732

ELEMENT = "Line.ln81048100-5"
N1230123     2         0.0 +j      0.0        0.0       0.8709
   TERMINAL TOTAL     0.0 +j      0.0        0.0       0.8709

ELEMENT = "Line.ln6348946-1"
M1069519     2         0.0 +j      0.0        0.0       0.7814
   TERMINAL TOTAL     0.0 +j      0.0        0.0       0.7814

ELEMENT = "Line.ln5744351-1"
L2897790     3         0.0 +j      0.0        0.0       0.7816
   TERMINAL TOTAL     0.0 +j      0.0        0.0       0.7816

ELEMENT = "Line.ln5472342-1"
M1026931     1         0.0 +j      0.0        0.0       0.7818
   TERMINAL TOTAL     0.0 +j      0.0        0.0       0.7818

ELEMENT = "Line.ln5621849-1"
P901931     3         0.0 +j      0.0        0.0       0.7814
   TERMINAL TOTAL     0.0 +j      0.0        0.0       0.7814

ELEMENT = "Line.ln6379375-1"
M1010013     1         0.0 +j      0.0        0.0       0.7817
   TERMINAL TOTAL     0.0 +j      0.0        0.0       0.7817

ELEMENT = "Line.ln6028890-1"
M1089145     1        13.7 +j      3.7       14.1       0.9656
M1089145     2        20.3 +j      5.5       21.1       0.9648
M1089145     3        15.6 +j      4.2       16.2       0.9659
   TERMINAL TOTAL    49.6 +j     13.4       51.4       0.9654
L3215385     1       -13.7 +j     -3.7       14.1       0.9655
L3215385     2       -20.3 +j     -5.5       21.1       0.9648
L3215385     3       -15.6 +j     -4.2       16.2       0.9658
   TERMINAL TOTAL   -49.6 +j    -13.4       51.4       0.9653

ELEMENT = "Line.ln6380822-1"
M1026854     1       544.4 +j    146.0      563.7       0.9659
M1026854     2       518.1 +j    141.0      536.9       0.9649
M1026854     3       317.0 +j     84.5      328.0       0.9663
   TERMINAL TOTAL  1379.5 +j    371.4     1428.6       0.9656
M1026852     1      -543.9 +j   -145.6      563.1       0.9660
M1026852     2      -517.8 +j   -140.6      536.5       0.9651
M1026852     3      -316.9 +j    -84.4      327.9       0.9663
   TERMINAL TOTAL -1378.6 +j   -370.6     1427.6       0.9657

ELEMENT = "Line.ln5835131-1"
L2935549     1       155.6 +j     41.0      161.0       0.9670
L2935549     2       370.1 +j    100.4      383.5       0.9651
L2935549     3       280.8 +j     75.5      290.8       0.9657
   TERMINAL TOTAL   806.6 +j    217.0      835.2       0.9657
M1069420     1      -155.6 +j    -41.1      160.9       0.9669
M1069420     2      -369.9 +j   -100.2      383.3       0.9652
M1069420     3      -280.8 +j    -75.5      290.7       0.9657
   TERMINAL TOTAL  -806.3 +j   -216.8      834.9       0.9657

ELEMENT = "Line.ln5803262-7"
L3157708     3         0.0 +j      0.0        0.0       0.8733
   TERMINAL TOTAL     0.0 +j      0.0        0.0       0.8733

ELEMENT = "Line.ln81048089-1"
M1108413     1         0.0 +j      0.0        0.0       0.8710
   TERMINAL TOTAL     0.0 +j      0.0        0.0       0.8710

ELEMENT = "Line.ln6201699-1"
P827532     1         0.0 +j      0.0        0.0       0.7814
   TERMINAL TOTAL     0.0 +j      0.0        0.0       0.7814

ELEMENT = "Line.ln5746548-1"
E182732     1       378.9 +j    101.5      392.3       0.9659
E182732     2       107.2 +j     28.3      110.9       0.9668
E182732     3       198.6 +j     52.7      205.4       0.9666
   TERMINAL TOTAL   684.7 +j    182.5      708.6       0.9663
M1026760     1      -378.9 +j   -101.5      392.2       0.9659
M1026760     2      -107.2 +j    -28.3      110.9       0.9668
M1026760     3      -198.6 +j    -52.7      205.4       0.9666
   TERMINAL TOTAL  -684.6 +j   -182.5      708.5       0.9663

ELEMENT = "Line.ln5835174-1"
L3048205     3         0.4 +j      0.2        0.5       0.8740
   TERMINAL TOTAL     0.4 +j      0.2        0.5       0.8740

ELEMENT = "Line.ln6505947-4"
M3036169     1         0.0 +j      0.0        0.0       0.8740
   TERMINAL TOTAL     0.0 +j      0.0        0.0       0.8740

ELEMENT = "Line.ln5683833-1"
L3178981     2         0.3 +j      0.2        0.4       0.8733
   TERMINAL TOTAL     0.3 +j      0.2        0.4       0.8733

ELEMENT = "Line.ln5561439-3"
M1069519     1        50.6 +j     13.4       52.4       0.9667
M1069519     2       407.8 +j    110.1      422.4       0.9654
M1069519     3        37.3 +j      9.8       38.5       0.9671
   TERMINAL TOTAL   495.7 +j    133.3      513.3       0.9657
N1136354     1       -50.6 +j    -13.5       52.4       0.9664
N1136354     2      -407.7 +j   -109.8      422.2       0.9656
N1136354     3       -37.3 +j     -9.8       38.6       0.9669
   TERMINAL TOTAL  -495.6 +j   -133.1      513.2       0.9658

ELEMENT = "Line.ln6109190-1"
L2879794     1         0.0 +j      0.0        0.0       0.8733
   TERMINAL TOTAL     0.0 +j      0.0        0.0       0.8733

ELEMENT = "Line.ln6258435-2"
M1047702     1         0.0 +j      0.0        0.0       0.7814
   TERMINAL TOTAL     0.0 +j      0.0        0.0       0.7814

ELEMENT = "Line.ln5804819-1"
M1069565     2         0.0 +j      0.0        0.0       0.8741
   TERMINAL TOTAL     0.0 +j      0.0        0.0       0.8741

ELEMENT = "Line.ln5593215-1"
L3104114     2         0.1 +j      0.0        0.1       0.8766
   TERMINAL TOTAL     0.1 +j      0.0        0.1       0.8766

ELEMENT = "Line.ln5833717-1"
L2745848     1       203.1 +j     53.3      210.0       0.9672
L2745848     2       484.2 +j    132.4      501.9       0.9646
L2745848     3       343.6 +j     93.4      356.0       0.9650
   TERMINAL TOTAL  1030.8 +j    279.2     1067.9       0.9652
L2673308     1      -203.0 +j    -53.4      209.9       0.9672
L2673308     2      -484.0 +j   -132.3      501.7       0.9646
L2673308     3      -343.5 +j    -93.3      356.0       0.9650
   TERMINAL TOTAL -1030.5 +j   -279.0     1067.6       0.9653

ELEMENT = "Line.ln6199557-1"
L2673308     1       203.0 +j     53.4      209.9       0.9672
L2673308     2       469.0 +j    128.3      486.3       0.9646
L2673308     3       343.5 +j     93.3      356.0       0.9650
   TERMINAL TOTAL  1015.6 +j    275.0     1052.2       0.9653
L2991939     1      -203.0 +j    -53.4      209.9       0.9671
L2991939     2      -468.7 +j   -128.0      485.8       0.9647
L2991939     3      -343.5 +j    -93.2      355.9       0.9651
   TERMINAL TOTAL -1015.1 +j   -274.6     1051.6       0.9653

ELEMENT = "Line.ln5744332-1"
L2916606     3         0.0 +j      0.0        0.0       0.8735
   TERMINAL TOTAL     0.0 +j      0.0        0.0       0.8735

ELEMENT = "Line.ln5558790-1"
M1142851     1      2833.5 +j    591.0     2894.5       0.9789
M1142851     2      2712.2 +j    634.2     2785.3       0.9737
M1142851     3      2018.6 +j    194.2     2027.9       0.9954
   TERMINAL TOTAL  7564.3 +j   1419.3     7696.3       0.9828
196-31070     1     -2832.9 +j   -590.1     2893.7       0.9790
196-31070     2     -2711.9 +j   -633.2     2784.9       0.9738
196-31070     3     -2018.6 +j   -193.9     2027.9       0.9954
   TERMINAL TOTAL -7563.4 +j  -1417.3     7695.1       0.9829

ELEMENT = "Line.ln6078692-1"
M1209822     3         0.1 +j      0.0        0.1       0.8732
   TERMINAL TOTAL     0.1 +j      0.0        0.1       0.8732

ELEMENT = "Line.ln5956482-1"
M1069550     2         0.0 +j      0.0        0.0       0.8766
   TERMINAL TOTAL     0.0 +j      0.0        0.0       0.8766

ELEMENT = "Line.ln5593225-1"
L2860483     2         0.0 +j      0.0        0.0       0.7816
   TERMINAL TOTAL     0.0 +j      0.0        0.0       0.7816

ELEMENT = "Line.ln6900591-26"
L3649299     1         0.0 +j      0.0        0.0       0.7814
   TERMINAL TOTAL     0.0 +j      0.0        0.0       0.7814

ELEMENT = "Line.ln5952393-1"
P895106     2         0.0 +j      0.0        0.0       0.8733
   TERMINAL TOTAL     0.0 +j      0.0        0.0       0.8733

ELEMENT = "Line.ln6350531-1"
M1047824     2         0.0 +j      0.0        0.0       0.8735
   TERMINAL TOTAL     0.0 +j      0.0        0.0       0.8735

ELEMENT = "Line.ln5965099-10"
M1069350     1        36.2 +j      9.3       37.4       0.9686
M1069350     2        -0.0 +j     -0.0        0.0       0.0461
M1069350     3       263.6 +j     70.1      272.8       0.9664
   TERMINAL TOTAL   299.8 +j     79.4      310.1       0.9667
N1144668     1       -36.2 +j     -9.3       37.4       0.9686
N1144668     2         0.0 +j      0.0        0.0       0.0461
N1144668     3      -263.6 +j    -70.1      272.7       0.9664
   TERMINAL TOTAL  -299.8 +j    -79.4      310.1       0.9667

ELEMENT = "Line.ln6047568-1"
L2879072     2         0.5 +j      0.2        0.5       0.8758
   TERMINAL TOTAL     0.5 +j      0.2        0.5       0.8758

ELEMENT = "Line.ln5926292-1"
M1108274     2         0.0 +j      0.0        0.0       0.7816
   TERMINAL TOTAL     0.0 +j      0.0        0.0       0.7816

ELEMENT = "Line.ln6380806-1"
L3235244     1         0.0 +j      0.0        0.0       0.8733
   TERMINAL TOTAL     0.0 +j      0.0        0.0       0.8733

ELEMENT = "Line.ln6341781-3"
N1147862     1         0.0 +j      0.0        0.0       0.7817
   TERMINAL TOTAL     0.0 +j      0.0        0.0       0.7817

ELEMENT = "Line.ln8979367-1"
M1069247     1         0.0 +j      0.0        0.0       0.8720
   TERMINAL TOTAL     0.0 +j      0.0        0.0       0.8720

ELEMENT = "Line.ln6018340-1"
L2786273     2         0.0 +j      0.0        0.0       0.8734
   TERMINAL TOTAL     0.0 +j      0.0        0.0       0.8734

ELEMENT = "Line.ln6380847-1"
L3254238     1       182.8 +j     48.5      189.1       0.9666
L3254238     2       316.3 +j     85.7      327.7       0.9652
L3254238     3       123.2 +j     32.5      127.4       0.9669
   TERMINAL TOTAL   622.3 +j    166.6      644.2       0.9660
M1047303     1      -182.7 +j    -48.5      189.0       0.9666
M1047303     2      -316.0 +j    -85.6      327.4       0.9652
M1047303     3      -123.1 +j    -32.5      127.4       0.9669
   TERMINAL TOTAL  -621.8 +j   -166.5      643.7       0.9660

ELEMENT = "Line.ln8961797-1"
M1047633     3         0.0 +j      0.0        0.0       0.8719
   TERMINAL TOTAL     0.0 +j      0.0        0.0       0.8719

ELEMENT = "Line.ln6077797-1"
M1069627     2         0.0 +j      0.0        0.0       0.8733
   TERMINAL TOTAL     0.0 +j      0.0        0.0       0.8733

ELEMENT = "Line.ln6077773-1"
M1089097     2         0.0 +j      0.0        0.0       0.8741
   TERMINAL TOTAL     0.0 +j      0.0        0.0       0.8741

ELEMENT = "Line.ln5837496-4"
N1142101     1         0.0 +j      0.0        0.0       0.7815
   TERMINAL TOTAL     0.0 +j      0.0        0.0       0.7815

ELEMENT = "Line.ln5623392-1"
L3066810     3         0.0 +j      0.0        0.0       0.8733
   TERMINAL TOTAL     0.0 +j      0.0        0.0       0.8733

ELEMENT = "Line.ln5624380-1"
M1209758     2         0.0 +j      0.0        0.0       0.7816
   TERMINAL TOTAL     0.0 +j      0.0        0.0       0.7816

ELEMENT = "Line.ln6422809-2"
M1047528     1       990.3 +j    270.3     1026.5       0.9647
M1047528     2      1067.1 +j    296.2     1107.4       0.9636
M1047528     3       651.5 +j    172.8      674.0       0.9666
   TERMINAL TOTAL  2708.9 +j    739.2     2807.9       0.9647
L2858166     1      -990.3 +j   -270.3     1026.5       0.9647
L2858166     2     -1067.0 +j   -296.1     1107.3       0.9636
L2858166     3      -651.5 +j   -172.8      674.0       0.9666
   TERMINAL TOTAL -2708.7 +j   -739.1     2807.8       0.9647

ELEMENT = "Line.ln5799561-1"
M1142843     1       846.7 +j    -76.0      850.1      -0.9960
M1142843     2       987.0 +j    -25.9      987.4      -0.9997
M1142843     3      1243.9 +j     35.8     1244.4       0.9996
   TERMINAL TOTAL  3077.6 +j    -66.1     3078.4      -0.9998
L3081380     1      -846.6 +j     76.6      850.1      -0.9959
L3081380     2      -986.5 +j     26.5      986.8      -0.9996
L3081380     3     -1243.5 +j    -34.4     1243.9       0.9996
   TERMINAL TOTAL -3076.6 +j     68.6     3077.3      -0.9998

ELEMENT = "Line.ln6229818-1"
L2804272     2         0.0 +j      0.0        0.0       0.7819
   TERMINAL TOTAL     0.0 +j      0.0        0.0       0.7819

ELEMENT = "Line.ln5593230-1"
M1069393     2         0.2 +j      0.1        0.2       0.8732
   TERMINAL TOTAL     0.2 +j      0.1        0.2       0.8732

ELEMENT = "Line.ln5563901-3"
N1142104     1      2340.0 +j    338.0     2364.3       0.9897
N1142104     2      2280.8 +j    355.4     2308.3       0.9881
N1142104     3      1678.3 +j     64.0     1679.6       0.9993
   TERMINAL TOTAL  6299.2 +j    757.4     6344.5       0.9928
M1108500     1     -2338.5 +j   -335.9     2362.5       0.9898
M1108500     2     -2280.3 +j   -353.1     2307.5       0.9882
M1108500     3     -1678.3 +j    -63.4     1679.5       0.9993
   TERMINAL TOTAL -6297.1 +j   -752.5     6341.9       0.9929

ELEMENT = "Line.ln6320339-1"
L3216348     1         0.0 +j      0.0        0.0       0.8768
   TERMINAL TOTAL     0.0 +j      0.0        0.0       0.8768

ELEMENT = "Line.ln5986927-1"
M1026925     1         0.0 +j      0.0        0.0       0.8733
   TERMINAL TOTAL     0.0 +j      0.0        0.0       0.8733

ELEMENT = "Line.ln6047567-1"
M1047447     2         0.0 +j      0.0        0.0       0.8768
   TERMINAL TOTAL     0.0 +j      0.0        0.0       0.8768

ELEMENT = "Line.ln5714047-1"
L3235246     2         0.0 +j      0.0        0.0       0.8732
   TERMINAL TOTAL     0.0 +j      0.0        0.0       0.8732

ELEMENT = "Line.ln5563934-1"
M1125911     2         0.0 +j      0.0        0.0       0.8733
   TERMINAL TOTAL     0.0 +j      0.0        0.0       0.8733

ELEMENT = "Line.ln6169249-3"
N1147863     3         0.0 +j      0.0        0.0       0.8732
   TERMINAL TOTAL     0.0 +j      0.0        0.0       0.8732

ELEMENT = "Line.ln6230800-1"
M1186061     2         0.0 +j      0.0        0.0       0.8733
   TERMINAL TOTAL     0.0 +j      0.0        0.0       0.8733

ELEMENT = "Line.ln5985339-2"
M1069130     1         0.0 +j      0.0        0.0       0.8734
   TERMINAL TOTAL     0.0 +j      0.0        0.0       0.8734

ELEMENT = "Line.ln5898059-3"
E182730     1         0.0 +j      0.0        0.0       0.8733
   TERMINAL TOTAL     0.0 +j      0.0        0.0       0.8733

ELEMENT = "Line.ln5956457-2"
M1069417     1       146.5 +j     38.7      151.5       0.9668
M1069417     2       354.3 +j     95.7      367.0       0.9654
M1069417     3       280.6 +j     75.1      290.5       0.9660
   TERMINAL TOTAL   781.4 +j    209.6      809.0       0.9659
N1138597     1      -146.5 +j    -38.7      151.5       0.9668
N1138597     2      -354.2 +j    -95.7      366.9       0.9654
N1138597     3      -280.6 +j    -75.1      290.5       0.9660
   TERMINAL TOTAL  -781.3 +j   -209.5      808.9       0.9659

ELEMENT = "Line.ln5865229-1"
M1026987     2         0.0 +j      0.0        0.0       0.8732
   TERMINAL TOTAL     0.0 +j      0.0        0.0       0.8732

ELEMENT = "Line.ln6018331-1"
M1142832     1       841.0 +j    -79.0      844.7      -0.9956
M1142832     2       985.4 +j    -27.6      985.7      -0.9996
M1142832     3      1189.5 +j     17.4     1189.7       0.9999
   TERMINAL TOTAL  3015.9 +j    -89.3     3017.2      -0.9996
L3160865     1      -841.0 +j     79.3      844.7      -0.9956
L3160865     2      -985.0 +j     28.0      985.4      -0.9996
L3160865     3     -1189.3 +j    -16.7     1189.4       0.9999
   TERMINAL TOTAL -3015.3 +j     90.7     3016.7      -0.9995

ELEMENT = "Line.ln6199535-1"
L2673323     3         0.0 +j      0.0        0.0       0.8742
   TERMINAL TOTAL     0.0 +j      0.0        0.0       0.8742

ELEMENT = "Line.ln5502538-1"
L2822869     1       423.4 +j    114.3      438.5       0.9654
L2822869     2       107.3 +j     28.2      110.9       0.9672
L2822869     3       239.3 +j     63.2      247.5       0.9668
   TERMINAL TOTAL   769.9 +j    205.7      796.9       0.9661
M1026808     1      -422.8 +j   -114.0      438.0       0.9655
M1026808     2      -107.3 +j    -28.2      110.9       0.9672
M1026808     3      -239.1 +j    -63.2      247.3       0.9668
   TERMINAL TOTAL  -769.2 +j   -205.5      796.2       0.9661

ELEMENT = "Line.ln5742816-2"
M1047825     2         0.0 +j      0.0        0.0       0.8733
   TERMINAL TOTAL     0.0 +j      0.0        0.0       0.8733

ELEMENT = "Line.ln6229803-3"
N1140520     3         0.0 +j      0.0        0.0       0.7815
   TERMINAL TOTAL     0.0 +j      0.0        0.0       0.7815

ELEMENT = "Line.ln5986930-1"
M1026646     1         0.1 +j      0.0        0.1       0.8733
   TERMINAL TOTAL     0.1 +j      0.0        0.1       0.8733

ELEMENT = "Line.ln6350532-1"
M1069384     1         0.0 +j      0.0        0.0       0.8767
   TERMINAL TOTAL     0.0 +j      0.0        0.0       0.8767

ELEMENT = "Line.ln5588016-3"
L2710546     2         0.0 +j      0.0        0.0       0.7814
   TERMINAL TOTAL     0.0 +j      0.0        0.0       0.7814

ELEMENT = "Line.ln5623409-1"
M1047319     3         0.0 +j      0.0        0.0       0.8733
   TERMINAL TOTAL     0.0 +j      0.0        0.0       0.8733

ELEMENT = "Line.ln6350560-1"
L3216358     1         0.0 +j      0.0        0.0       0.8822
   TERMINAL TOTAL     0.0 +j      0.0        0.0       0.8822

ELEMENT = "Line.ln5472347-1"
M1108274     2         0.0 +j      0.0        0.0       0.8733
   TERMINAL TOTAL     0.0 +j      0.0        0.0       0.8733

ELEMENT = "Line.ln6290199-1"
M1089198     1      2162.6 +j    254.1     2177.5       0.9932
M1089198     2      2214.2 +j    280.6     2231.9       0.9921
M1089198     3      1570.2 +j     17.7     1570.3       0.9999
   TERMINAL TOTAL  5947.0 +j    552.4     5972.6       0.9957
M1089201     1     -2158.2 +j   -248.8     2172.5       0.9934
M1089201     2     -2212.1 +j   -272.9     2228.8       0.9925
M1089201     3     -1570.3 +j    -15.6     1570.4       1.0000
   TERMINAL TOTAL -5940.6 +j   -537.3     5964.9       0.9959

ELEMENT = "Line.ln6409775-3"
M1047763     1         0.0 +j      0.0        0.0       0.8732
   TERMINAL TOTAL     0.0 +j      0.0        0.0       0.8732

ELEMENT = "Line.ln5591811-1"
L3101827     3         0.0 +j      0.0        0.0       0.8733
   TERMINAL TOTAL     0.0 +j      0.0        0.0       0.8733

ELEMENT = "Line.ln6229808-1"
M1026335     1         0.0 +j      0.0        0.0       0.7817
   TERMINAL TOTAL     0.0 +j      0.0        0.0       0.7817

ELEMENT = "Line.ln5651985-3"
N1136357     3         0.0 +j      0.0        0.0       0.7814
   TERMINAL TOTAL     0.0 +j      0.0        0.0       0.7814

ELEMENT = "Line.ln6047577-1"
M1047513     1       851.5 +j    228.4      881.6       0.9658
M1047513     2       653.1 +j    179.3      677.2       0.9643
M1047513     3       737.4 +j    201.0      764.3       0.9648
   TERMINAL TOTAL  2242.0 +j    608.8     2323.2       0.9651
M1047507     1      -850.0 +j   -227.9      880.0       0.9659
M1047507     2      -652.2 +j   -179.1      676.3       0.9643
M1047507     3      -736.2 +j   -200.7      763.1       0.9648
   TERMINAL TOTAL -2238.4 +j   -607.7     2319.4       0.9651

ELEMENT = "Line.ln5528574-2"
M1142863     3         0.0 +j      0.0        0.0       0.8732
   TERMINAL TOTAL     0.0 +j      0.0        0.0       0.8732

ELEMENT = "Line.ln5896827-1"
M1125916     2         0.0 +j      0.0        0.0       0.8735
   TERMINAL TOTAL     0.0 +j      0.0        0.0       0.8735

ELEMENT = "Line.ln5774451-1"
L3066809     3         0.0 +j      0.0        0.0       0.8766
   TERMINAL TOTAL     0.0 +j      0.0        0.0       0.8766

ELEMENT = "Line.ln5504876-1"
M1142818     1        56.2 +j     15.0       58.2       0.9663
M1142818     2        35.8 +j      9.4       37.0       0.9674
M1142818     3         0.0 +j     -0.1        0.1      -0.0610
   TERMINAL TOTAL    92.0 +j     24.2       95.1       0.9671
P829965     1       -56.2 +j    -15.0       58.2       0.9662
P829965     2       -35.8 +j     -9.4       37.0       0.9673
P829965     3        -0.0 +j      0.1        0.1      -0.0610
   TERMINAL TOTAL   -92.0 +j    -24.2       95.1       0.9670

ELEMENT = "Line.ln5860423-4"
Q14733     1      1931.1 +j    536.1     2004.2       0.9636
Q14733     2      1739.4 +j    493.8     1808.1       0.9620
Q14733     3      1460.8 +j    399.1     1514.3       0.9647
   TERMINAL TOTAL  5131.3 +j   1428.9     5326.6       0.9633
M1047568     1     -1930.5 +j   -535.5     2003.4       0.9636
M1047568     2     -1739.0 +j   -493.3     1807.6       0.9620
M1047568     3     -1460.5 +j   -398.8     1514.0       0.9647
   TERMINAL TOTAL -5130.0 +j  -1427.7     5325.0       0.9634

ELEMENT = "Line.ln6138613-1"
M1047326     1         0.0 +j      0.0        0.0       0.7815
   TERMINAL TOTAL     0.0 +j      0.0        0.0       0.7815

ELEMENT = "Line.ln6077771-1"
M1009824     2         0.0 +j      0.0        0.0       0.8961
   TERMINAL TOTAL     0.0 +j      0.0        0.0       0.8961

ELEMENT = "Line.ln6138636-1"
M1047409     1         0.0 +j      0.0        0.0       0.8736
   TERMINAL TOTAL     0.0 +j      0.0        0.0       0.8736

ELEMENT = "Line.ln6199512-1"
M1089177     3         0.0 +j      0.0        0.0       0.8735
   TERMINAL TOTAL     0.0 +j      0.0        0.0       0.8735

ELEMENT = "Line.ln6047564-1"
M1026951     2         0.0 +j      0.0        0.0       0.7815
   TERMINAL TOTAL     0.0 +j      0.0        0.0       0.7815

ELEMENT = "Line.ln6258460-3"
M4122657     3         0.0 +j      0.0        0.0       0.7822
   TERMINAL TOTAL     0.0 +j      0.0        0.0       0.7822

ELEMENT = "Line.ln5683810-1"
M1069419     1       146.5 +j     38.7      151.5       0.9669
M1069419     2       369.5 +j     99.9      382.7       0.9653
M1069419     3       280.7 +j     75.3      290.6       0.9659
   TERMINAL TOTAL   796.6 +j    213.8      824.8       0.9658
M1069418     1      -146.5 +j    -38.7      151.5       0.9668
M1069418     2      -369.4 +j    -99.8      382.6       0.9654
M1069418     3      -280.6 +j    -75.2      290.6       0.9659
   TERMINAL TOTAL  -796.5 +j   -213.7      824.7       0.9658

ELEMENT = "Line.ln5852082-1"
M1026824     3         0.0 +j      0.0        0.0       0.8886
   TERMINAL TOTAL     0.0 +j      0.0        0.0       0.8886

ELEMENT = "Line.ln6380816-1"
M1047453     2         0.0 +j      0.0        0.0       0.7818
   TERMINAL TOTAL     0.0 +j      0.0        0.0       0.7818

ELEMENT = "Line.ln6108138-2"
P860892     3         0.0 +j      0.0        0.0       0.7814
   TERMINAL TOTAL     0.0 +j      0.0        0.0       0.7814

ELEMENT = "Line.ln6167732-2"
M1089205     1         0.0 +j      0.0        0.0       0.8733
   TERMINAL TOTAL     0.0 +j      0.0        0.0       0.8733

ELEMENT = "Line.ln6229831-1"
L2710542     2         0.1 +j      0.0        0.1       0.8732
   TERMINAL TOTAL     0.1 +j      0.0        0.1       0.8732

ELEMENT = "Line.ln6504020-2"
M3032980     1      3905.4 +j    397.9     3925.6       0.9948
...